Version 4
SHEET 1 880 680
WIRE 32 96 32 64
WIRE 256 112 112 112
WIRE 112 160 112 112
WIRE 160 160 112 160
WIRE 256 176 256 112
WIRE 256 176 224 176
WIRE 304 176 256 176
WIRE 32 192 32 176
WIRE 64 192 32 192
WIRE 96 192 64 192
WIRE 160 192 96 192
WIRE 32 224 32 192
WIRE 96 240 96 192
FLAG 192 16 VCC
FLAG 192 144 VCC
FLAG 192 96 0
FLAG 192 208 0
FLAG 32 64 VCC
FLAG 32 304 0
FLAG 96 304 0
FLAG 64 192 VREF
FLAG 304 176 VCOM
SYMBOL OpAmps\\AD820 192 112 R0
WINDOW 0 37 32 Left 2
WINDOW 3 33 95 Left 2
SYMATTR InstName U1
SYMBOL voltage 192 0 R0
WINDOW 123 0 0 Left 0
WINDOW 39 0 0 Left 0
SYMATTR InstName V1
SYMATTR Value 3.3
SYMBOL res 16 80 R0
SYMATTR InstName R1
SYMATTR Value 1k
SYMBOL res 16 208 R0
SYMATTR InstName R2
SYMATTR Value 1k
SYMBOL cap 80 240 R0
SYMATTR InstName C1
SYMATTR Value 22µ
TEXT 14 320 Left 2 !.op
